Version 4
SHEET 1 3092 912
WIRE 224 96 -48 96
WIRE 224 128 224 96
WIRE -48 144 -48 96
WIRE 176 192 112 192
WIRE 224 240 224 224
WIRE 112 336 112 192
WIRE 224 336 224 320
WIRE 224 336 112 336
WIRE 224 352 224 336
WIRE -48 464 -48 224
WIRE 96 464 -48 464
WIRE 224 464 224 432
WIRE 224 464 96 464
WIRE 96 496 96 464
FLAG 96 496 0
SYMBOL njf 176 128 R0
SYMATTR InstName J1
SYMATTR Value 4391
SYMBOL voltage -48 128 R0
SYMATTR InstName V1
SYMATTR Value {V1}
SYMBOL Misc\\EuropeanResistor 208 224 R0
SYMATTR InstName R1
SYMATTR Value 1000
SYMBOL voltage 224 336 R0
SYMATTR InstName V2
SYMATTR Value 6.6
TEXT 392 136 Left 2 !;.tran 1\n.param vto=-2.808 V1=18\n;.step param vto -1.417 -5.27 0.2\n.step param vto -4 -10 2                   ;4391 Vgsoff 4..10V\n;.step param vto -2 -5 1                    ;4392 Vgsoff 2..5V\n;.step param vto -0.5 -3 0.5             ;4393 Vgsoff 0.5..3V\n;.step param vto list -1.417 -2.808 -5.27\n;.step dec param V1 \n.dc V1 list 17.5 18.5 25\n;.step param V1 list 17.5 18.5 25\n;.op
TEXT -1256 536 Left 2 !.model 4391 NJF(Beta=3.084m Betatce=-0.5 Vto={vto} Vtotc=-2.5m Lambda=17.5m Is=205.2f Xti=3 Isr=1988f Nr=2 Alpha=20.98u N=1 Rd=1 Rs=1 Cgd=5.35p Cgs=4.76p Fc=0.5 Vk=123.7 M=407m Pb=1 Kf=40230f Af=1 Mfg=Linear_Systems)\n.model 4392 NJF(Beta=5.816m Betatce=-0.5 Vto={vto} Vtotc=-2.5m Lambda=12m Is=205.2f Xti=3 Isr=1988f Nr=2 Alpha=20.98u N=1 Rd=1 Rs=1 Cgd=4.83p Cgs=4.29p Fc=0.5 Vk=123.7 M=407m Pb=1 Kf=77640f Af=1 Mfg=Linear_Systems)\n.model 4393 NJF(Beta=9.109m Betatce=-0.5 Vto={vto} Vtotc=-2.5m Lambda=8m Is=205.2f Xti=3 Isr=1988f Nr=2 Alpha=20.98u N=1 Rd=1 Rs=1 Cgd=4.57p Cgs=4.06p Fc=0.5 Vk=123.7 M=407m Pb=1 Kf=12300f Af=1 Mfg=Linear_Systems)
